tests/data/state_estimation/sensor-update-nr/input.json
{
  "version": "1.0",
  "type": "input",
  "is_batch": false,
  "attributes": {},
  "data": {
    "node": [
      {
        "id": 0,
        "u_rated": 20000
      },
      {
        "id": 1,
        "u_rated": 20000
      },
      {
        "id": 2,
        "u_rated": 20000
      },
      {
        "id": 3,
        "u_rated": 20000
      },
      {
        "id": 4,
        "u_rated": 20000
      },
      {
        "id": 5,
        "u_rated": 20000
      },
      {
        "id": 6,
        "u_rated": 20000
      }
    ],
    "line": [
      {
        "id": 7,
        "from_node": 1,
        "to_node": 2,
        "from_status": 1,
        "to_status": 1,
        "r1": 0.1,
        "x1": 1,
        "c1": 4e-06,
        "tan1": 0,
        "r0": 5,
        "x0": 1,
        "c0": 4e-06,
        "tan0": 0,
        "i_n": 500
      },
      {
        "id": 8,
        "from_node": 1,
        "to_node": 2,
        "from_status": 1,
        "to_status": 1,
        "r1": 0.6,
        "x1": 1.1,
        "c1": 4e-06,
        "tan1": 0,
        "r0": 5,
        "x0": 1,
        "c0": 4e-06,
        "tan0": 0,
        "i_n": 500
      },
      {
        "id": 9,
        "from_node": 1,
        "to_node": 2,
        "from_status": 1,
        "to_status": 1,
        "r1": 0.7,
        "x1": 1,
        "c1": 4e-06,
        "tan1": 0,
        "r0": 5,
        "x0": 1,
        "c0": 4e-06,
        "tan0": 0,
        "i_n": 500
      },
      {
        "id": 10,
        "from_node": 2,
        "to_node": 4,
        "from_status": 0,
        "to_status": 0,
        "r1": 0.3,
        "x1": 0.4,
        "c1": 2e-06,
        "tan1": 0,
        "r0": 1,
        "x0": 0.5,
        "c0": 2.1e-06,
        "tan0": 0,
        "i_n": 500
      },
      {
        "id": 11,
        "from_node": 2,
        "to_node": 4,
        "from_status": 0,
        "to_status": 0,
        "r1": 0.3,
        "x1": 0.4,
        "c1": 2e-06,
        "tan1": 0,
        "r0": 1,
        "x0": 0.5,
        "c0": 2.1e-06,
        "tan0": 0,
        "i_n": 500
      }
    ],
    "link": [
      {
        "id": 12,
        "from_node": 4,
        "to_node": 6,
        "from_status": 1,
        "to_status": 1
      },
      {
        "id": 13,
        "from_node": 4,
        "to_node": 5,
        "from_status": 1,
        "to_status": 1
      }
    ],
    "source": [
      {
        "id": 14,
        "node": 1,
        "status": 1,
        "u_ref": 1,
        "sk": 700000000,
        "rx_ratio": 0.1,
        "z01_ratio": 3
      }
    ],
    "sym_load": [
      {
        "id": 15,
        "node": 2,
        "status": 1,
        "type": 0,
        "p_specified": 0,
        "q_specified": 0
      },
      {
        "id": 16,
        "node": 2,
        "status": 1,
        "type": 0,
        "p_specified": 0,
        "q_specified": 0
      },
      {
        "id": 17,
        "node": 5,
        "status": 0,
        "type": 0,
        "p_specified": 0,
        "q_specified": 0
      },
      {
        "id": 18,
        "node": 6,
        "status": 0,
        "type": 0,
        "p_specified": 0,
        "q_specified": 0
      }
    ],
    "sym_power_sensor": [
      {
        "id": 21,
        "measured_object": 15,
        "measured_terminal_type": 4,
        "power_sigma": 200000,
        "p_measured": -2000000,
        "q_measured": 40000
      },
      {
        "id": 22,
        "measured_object": 16,
        "measured_terminal_type": 4,
        "power_sigma": 30000,
        "p_measured": 300000,
        "q_measured": 300000
      },
      {
        "id": 23,
        "measured_object": 7,
        "measured_terminal_type": 1,
        "power_sigma": 200000,
        "p_measured": -2000000,
        "q_measured": 20000
      },
      {
        "id": 24,
        "measured_object": 8,
        "measured_terminal_type": 1,
        "power_sigma": 300000,
        "p_measured": 3000000,
        "q_measured": -470000
      },
      {
        "id": 25,
        "measured_object": 9,
        "measured_terminal_type": 1,
        "power_sigma": 200000,
        "p_measured": -2000000,
        "q_measured": 200000
      }
    ],
    "sym_voltage_sensor": [
      {
        "id": 19,
        "measured_object": 3,
        "u_sigma": 2000,
        "u_measured": 20000,
        "u_angle_measured": 0
      },
      {
        "id": 20,
        "measured_object": 2,
        "u_sigma": 2000,
        "u_measured": 20000,
        "u_angle_measured": 0
      }
    ]
  }
}
