tests/data/state_estimation/sensor-update-nr/sym_output_batch.json
{
  "version": "1.0",
  "type": "sym_output",
  "is_batch": true,
  "attributes": {},
  "data": [
    {
      "node": [
        {
          "id": 0,
          "energized": 0,
          "u_pu": 0,
          "u": 0,
          "u_angle": 0,
          "p": 0,
          "q": 0
        },
        {
          "id": 1,
          "energized": 1,
          "u_pu": 1.07310261144027,
          "u": 21462.0522288054,
          "u_angle": 0.001377157114121523,
          "p": 1186703.126398293,
          "q": -2248344.028696971
        },
        {
          "id": 2,
          "energized": 1,
          "u_pu": 1.073869469204214,
          "u": 21477.38938408427,
          "u_angle": 5.312187516667019e-14,
          "p": -1185648.071781754,
          "q": 513227.7253200568
        },
        {
          "id": 3,
          "energized": 0,
          "u_pu": 0,
          "u": 0,
          "u_angle": 0,
          "p": 0,
          "q": 0
        },
        {
          "id": 4,
          "energized": 0,
          "u_pu": 0,
          "u": 0,
          "u_angle": 0,
          "p": 0,
          "q": 0
        },
        {
          "id": 5,
          "energized": 0,
          "u_pu": 0,
          "u": 0,
          "u_angle": 0,
          "p": 0,
          "q": 0
        },
        {
          "id": 6,
          "energized": 0,
          "u_pu": 0,
          "u": 0,
          "u_angle": 0,
          "p": 0,
          "q": 0
        }
      ],
      "line": [
        {
          "id": 7,
          "energized": 1,
          "loading": 0.0485563885680485,
          "p_from": 595966.1576117347,
          "q_from": -677742.2187398296,
          "i_from": 24.27819428402425,
          "s_from": 902502.1751114409,
          "p_to": -595856.3114591262,
          "q_to": 99595.12073886127,
          "i_to": 16.23988146998454,
          "s_to": 604122.4478370785
        },
        {
          "id": 8,
          "energized": 1,
          "loading": 0.04446400501766552,
          "p_from": 319134.2923108619,
          "q_from": -762334.3334453589,
          "i_from": 22.23200250883276,
          "s_from": 826438.3416071245,
          "p_to": -318710.3001549388,
          "q_to": 183866.0928708464,
          "i_to": 9.890994065793686,
          "s_to": 367944.2831903247
        },
        {
          "id": 9,
          "energized": 1,
          "loading": 0.04587589387473227,
          "p_from": 271602.6764756736,
          "q_from": -808267.4765116,
          "i_from": 22.93794693736614,
          "s_from": 852680.6714445796,
          "p_to": -271081.4601676962,
          "q_to": 229766.511710288,
          "i_to": 9.552595736245635,
          "s_to": 355355.8891451838
        },
        {
          "id": 10,
          "energized": 0,
          "loading": 0,
          "p_from": 0,
          "q_from": 0,
          "i_from": 0,
          "s_from": 0,
          "p_to": 0,
          "q_to": 0,
          "i_to": 0,
          "s_to": 0
        },
        {
          "id": 11,
          "energized": 0,
          "loading": 0,
          "p_from": 0,
          "q_from": 0,
          "i_from": 0,
          "s_from": 0,
          "p_to": 0,
          "q_to": 0,
          "i_to": 0,
          "s_to": 0
        }
      ],
      "link": [
        {
          "id": 12,
          "energized": 0,
          "loading": 0,
          "p_from": 0,
          "q_from": 0,
          "i_from": 0,
          "s_from": 0,
          "p_to": 0,
          "q_to": 0,
          "i_to": 0,
          "s_to": 0
        },
        {
          "id": 13,
          "energized": 0,
          "loading": 0,
          "p_from": 0,
          "q_from": 0,
          "i_from": 0,
          "s_from": 0,
          "p_to": 0,
          "q_to": 0,
          "i_to": 0,
          "s_to": 0
        }
      ],
      "source": [
        {
          "id": 14,
          "energized": 1,
          "p": 1186703.126398293,
          "q": -2248344.028696971,
          "i": 68.3905021601785,
          "s": 2542305.092151768,
          "pf": 0.4667823425527131
        }
      ],
      "sym_load": [
        {
          "id": 15,
          "energized": 1,
          "p": -1407175.964109123,
          "q": 178386.1373399716,
          "i": 38.13012066627709,
          "s": 1418437.805461176,
          "pf": -0.9920603911509599
        },
        {
          "id": 16,
          "energized": 1,
          "p": 2592824.035890877,
          "q": -691613.8626600284,
          "i": 72.1367021438589,
          "s": 2683480.243287991,
          "pf": 0.9662169275798222
        },
        {
          "id": 17,
          "energized": 0,
          "p": 0,
          "q": 0,
          "i": 0,
          "s": 0,
          "pf": 0
        },
        {
          "id": 18,
          "energized": 0,
          "p": 0,
          "q": 0,
          "i": 0,
          "s": 0,
          "pf": 0
        }
      ],
      "sym_power_sensor": [
        {
          "id": 21,
          "energized": 1,
          "p_residual": -592824.0358908768,
          "q_residual": 121613.8626600284
        },
        {
          "id": 22,
          "energized": 1,
          "p_residual": -592824.0358908768,
          "q_residual": 121613.8626600284
        },
        {
          "id": 23,
          "energized": 1,
          "p_residual": -1404143.688540874,
          "q_residual": 180404.8792611387
        },
        {
          "id": 24,
          "energized": 1,
          "p_residual": 3318710.300154939,
          "q_residual": -583866.0928708464
        },
        {
          "id": 25,
          "energized": 1,
          "p_residual": -1728918.539832304,
          "q_residual": 170233.488289712
        }
      ],
      "sym_voltage_sensor": [
        {
          "id": 19,
          "energized": 0,
          "u_residual": 0,
          "u_angle_residual": 0
        },
        {
          "id": 20,
          "energized": 1,
          "u_residual": -1477.389384084273,
          "u_angle_residual": -5.312187516667019e-14
        }
      ]
    },
    {
      "node": [
        {
          "id": 0,
          "energized": 0,
          "u_pu": 0,
          "u": 0,
          "u_angle": 0,
          "p": 0,
          "q": 0
        },
        {
          "id": 1,
          "energized": 1,
          "u_pu": 1.092205560860152,
          "u": 21844.11121720304,
          "u_angle": -0.0001969570549001009,
          "p": -548822.6987342365,
          "q": -1621380.473946841
        },
        {
          "id": 2,
          "energized": 1,
          "u_pu": 1.092991911186064,
          "u": 21859.83822372128,
          "u_angle": -3.110046534260386e-14,
          "p": 549075.5269048279,
          "q": -178157.5878091146
        },
        {
          "id": 3,
          "energized": 0,
          "u_pu": 0,
          "u": 0,
          "u_angle": 0,
          "p": 0,
          "q": 0
        },
        {
          "id": 4,
          "energized": 0,
          "u_pu": 0,
          "u": 0,
          "u_angle": 0,
          "p": 0,
          "q": 0
        },
        {
          "id": 5,
          "energized": 0,
          "u_pu": 0,
          "u": 0,
          "u_angle": 0,
          "p": 0,
          "q": 0
        },
        {
          "id": 6,
          "energized": 0,
          "u_pu": 0,
          "u": 0,
          "u_angle": 0,
          "p": 0,
          "q": 0
        }
      ],
      "line": [
        {
          "id": 7,
          "energized": 1,
          "loading": 0.03400643301680723,
          "p_from": -127130.7284617272,
          "q_from": -630631.8790233056,
          "i_from": 17.00321650840361,
          "s_from": 643318.5750152677,
          "p_to": 127157.0514609219,
          "q_to": 30839.77709538874,
          "i_to": 3.455766620782379,
          "s_to": 130843.4468650563
        },
        {
          "id": 8,
          "energized": 1,
          "loading": 0.02863593534461891,
          "p_from": -197180.5834416728,
          "q_from": -504561.6138358167,
          "i_from": 14.31796767230945,
          "s_from": 541721.8886504424,
          "p_to": 197282.1868652671,
          "q_to": -95307.44514068299,
          "i_to": 5.78668848742736,
          "s_to": 219097.6274485565
        },
        {
          "id": 9,
          "energized": 1,
          "loading": 0.02830817029890169,
          "p_from": -224511.3868307821,
          "q_from": -486186.981087843,
          "i_from": 14.15408514945084,
          "s_from": 535521.3752932667,
          "p_to": 224636.2885786155,
          "q_to": -113689.919763634,
          "i_to": 6.649546821724111,
          "s_to": 251767.4720893002
        },
        {
          "id": 10,
          "energized": 0,
          "loading": 0,
          "p_from": 0,
          "q_from": 0,
          "i_from": 0,
          "s_from": 0,
          "p_to": 0,
          "q_to": 0,
          "i_to": 0,
          "s_to": 0
        },
        {
          "id": 11,
          "energized": 0,
          "loading": 0,
          "p_from": 0,
          "q_from": 0,
          "i_from": 0,
          "s_from": 0,
          "p_to": 0,
          "q_to": 0,
          "i_to": 0,
          "s_to": 0
        }
      ],
      "link": [
        {
          "id": 12,
          "energized": 0,
          "loading": 0,
          "p_from": 0,
          "q_from": 0,
          "i_from": 0,
          "s_from": 0,
          "p_to": 0,
          "q_to": 0,
          "i_to": 0,
          "s_to": 0
        },
        {
          "id": 13,
          "energized": 0,
          "loading": 0,
          "p_from": 0,
          "q_from": 0,
          "i_from": 0,
          "s_from": 0,
          "p_to": 0,
          "q_to": 0,
          "i_to": 0,
          "s_to": 0
        }
      ],
      "source": [
        {
          "id": 14,
          "energized": 1,
          "p": -548822.6987342365,
          "q": -1621380.473946841,
          "i": 45.24231367119211,
          "s": 1711747.935866147,
          "pf": -0.3206212125248053
        }
      ],
      "sym_load": [
        {
          "id": 15,
          "energized": 1,
          "p": -874401.493305455,
          "q": -118281.0877172473,
          "i": 23.30455486243683,
          "s": 882365.2232530386,
          "pf": -0.9909745650239664
        },
        {
          "id": 16,
          "energized": 1,
          "p": 325325.9664006273,
          "q": 296438.6755263619,
          "i": 11.62443008943587,
          "s": 440128.2458128833,
          "pf": 0.7391617545467346
        },
        {
          "id": 17,
          "energized": 0,
          "p": 0,
          "q": 0,
          "i": 0,
          "s": 0,
          "pf": 0
        },
        {
          "id": 18,
          "energized": 0,
          "p": 0,
          "q": 0,
          "i": 0,
          "s": 0,
          "pf": 0
        }
      ],
      "sym_power_sensor": [
        {
          "id": 21,
          "energized": 1,
          "p_residual": -1125598.506694545,
          "q_residual": 158281.0877172473
        },
        {
          "id": 22,
          "energized": 1,
          "p_residual": -25325.96640062729,
          "q_residual": 3561.32447363805
        },
        {
          "id": 23,
          "energized": 1,
          "p_residual": -2127157.051460922,
          "q_residual": -10839.77709538874
        },
        {
          "id": 24,
          "energized": 1,
          "p_residual": 2802717.813134733,
          "q_residual": -374692.554859317
        },
        {
          "id": 25,
          "energized": 1,
          "p_residual": -2224636.288578616,
          "q_residual": 313689.9197636339
        }
      ],
      "sym_voltage_sensor": [
        {
          "id": 19,
          "energized": 0,
          "u_residual": 0,
          "u_angle_residual": 0
        },
        {
          "id": 20,
          "energized": 1,
          "u_residual": -1859.83822372128,
          "u_angle_residual": 3.110046534260386e-14
        }
      ]
    }
  ]
}
